      22
 i =    32471, time =    32471.000, E =      -164.3349966488
  O        11.7330275392       10.6987794712        9.3989064444
  H        12.4513737046       10.1812485948        8.9726726333
  H        11.5262997379       11.5440077490        8.9369472239
  O        10.3817807151       14.3967388857        6.2365226879
  H        10.7786774157       15.2411540386        6.0516448710
  H        10.9700614652       13.6989557618        5.7968436008
  N        12.1380725664       11.5409114128        6.0115309629
  O        12.2504310414       10.1816821091        5.9993634401
  O        11.3163485756       12.1007234102        5.2526011775
  O        12.9269454377       12.0827102937        6.7928697093
  N         7.7932868288       11.2774824697        7.8800037620
  H         6.8002894561       10.9963880588        7.7936173576
  H         7.8910666222       12.0695852821        7.2305085794
  H         8.1310829808       11.6191647491        8.7768352373
  N        10.1982898166        9.6201914186        5.8176513646
  O        10.2612829598        8.6552202858        5.2616910422
  O         9.7637501024        9.1708407769        7.9884265012
  H        10.3371094864        9.6538007836        8.5638165431
  H         8.9465919604        9.7890718312        7.8837882231
  O        10.0641093090       12.9009867168        8.6686875700
  H        10.2592946203       13.5065159185        9.4420555121
  H        10.1369418000       13.5398079151        7.8672175614
